<?xml version='1.0' encoding='UTF-8'?>
<routes xmlns:xsi="http://www.w3.org/2001/XMLSchema-instance" xsi:noNamespaceSchemaLocation="http://sumo.dlr.de/xsd/routes_file.xsd">
<vType id="Motorcycle" vClass="motorcycle"/> 
<vType id="Car" vClass="passenger"/>
<vType id="Truck" vClass="truck"/>
	<trip id="Motorcycle2" type="Motorcycle" depart="6" departLane="best" departSpeed="max" color="169,231,126" from="2_0" to="3_1"/>
	<trip id="Car32" type="Car" depart="6" departLane="best" departSpeed="max" color="140,172,177" from="1_0" to="3_1"/>
	<trip id="Car35" type="Car" depart="6" departLane="best" departSpeed="max" color="110,170,96" from="1_0" to="3_1"/>
	<trip id="Car44" type="Car" depart="6" departLane="best" departSpeed="max" color="13,23,121" from="2_0" to="4_1"/>
	<trip id="Car19" type="Car" depart="10" departLane="best" departSpeed="max" color="41,5,13" from="2_0" to="3_1"/>
	<trip id="Car5" type="Car" depart="10" departLane="best" departSpeed="max" color="163,75,43" from="3_0" to="2_1"/>
	<trip id="Truck7" type="Truck" depart="10" departLane="best" departSpeed="max" color="137,180,139" from="1_0" to="3_1"/>
	<trip id="Van5" type="Truck" depart="11" departLane="best" departSpeed="max" color="218,161,9" from="1_0" to="3_1"/>
	<trip id="Car20" type="Car" depart="16" departLane="best" departSpeed="max" color="157,149,155" from="2_0" to="3_1"/>
	<trip id="Truck3" type="Truck" depart="16" departLane="best" departSpeed="max" color="49,139,253" from="1_0" to="3_1"/>
	<trip id="Car15" type="Car" depart="16" departLane="best" departSpeed="max" color="131,24,76" from="3_0" to="1_1"/>
	<trip id="Car23" type="Car" depart="21" departLane="best" departSpeed="max" color="104,242,203" from="1_0" to="4_1"/>
	<trip id="Car17" type="Car" depart="25" departLane="best" departSpeed="max" color="217,231,245" from="3_0" to="1_1"/>
	<trip id="Car4" type="Car" depart="25" departLane="best" departSpeed="max" color="102,209,197" from="3_0" to="2_1"/>
	<trip id="Car27" type="Car" depart="31" departLane="best" departSpeed="max" color="176,199,40" from="1_0" to="3_1"/>
	<trip id="Car34" type="Car" depart="31" departLane="best" departSpeed="max" color="154,41,124" from="1_0" to="3_1"/>
	<trip id="Car1" type="Car" depart="35" departLane="best" departSpeed="max" color="182,111,35" from="4_0" to="3_1"/>
	<trip id="Car6" type="Car" depart="35" departLane="best" departSpeed="max" color="48,230,241" from="3_0" to="1_1"/>
	<trip id="Car18" type="Car" depart="35" departLane="best" departSpeed="max" color="193,147,155" from="3_0" to="4_1"/>
	<trip id="Car8" type="Car" depart="35" departLane="best" departSpeed="max" color="7,140,81" from="3_0" to="1_1"/>
	<trip id="Car3" type="Car" depart="35" departLane="best" departSpeed="max" color="116,24,213" from="4_0" to="3_1"/>
	<trip id="Car28" type="Car" depart="44" departLane="best" departSpeed="max" color="8,184,41" from="1_0" to="3_1"/>
	<trip id="Car40" type="Car" depart="47" departLane="best" departSpeed="max" color="207,122,126" from="1_0" to="3_1"/>
	<trip id="Car7" type="Car" depart="51" departLane="best" departSpeed="max" color="244,185,69" from="3_0" to="1_1"/>
	<trip id="Car22" type="Car" depart="51" departLane="best" departSpeed="max" color="207,181,22" from="2_0" to="1_1"/>
	<trip id="Car2" type="Car" depart="55" departLane="best" departSpeed="max" color="204,209,0" from="4_0" to="3_1"/>
	<trip id="Car42" type="Car" depart="55" departLane="best" departSpeed="max" color="232,48,78" from="1_0" to="2_1"/>
	<trip id="Car37" type="Car" depart="55" departLane="best" departSpeed="max" color="185,161,70" from="1_0" to="3_1"/>
	<trip id="Car38" type="Car" depart="59" departLane="best" departSpeed="max" color="101,105,201" from="1_0" to="3_1"/>
	<trip id="Motorcycle5" type="Motorcycle" depart="72" departLane="best" departSpeed="max" color="140,199,247" from="1_0" to="3_1"/>
	<trip id="Truck6" type="Truck" depart="73" departLane="best" departSpeed="max" color="141,57,28" from="1_0" to="3_1"/>
	<trip id="Van1" type="Truck" depart="82" departLane="best" departSpeed="max" color="149,11,132" from="3_0" to="1_1"/>
	<trip id="Car33" type="Car" depart="82" departLane="best" departSpeed="max" color="165,86,26" from="1_0" to="3_1"/>
	<trip id="Van2" type="Truck" depart="88" departLane="best" departSpeed="max" color="162,125,153" from="3_0" to="1_1"/>
	<trip id="Truck1" type="Truck" depart="88" departLane="best" departSpeed="max" color="240,252,83" from="3_0" to="4_1"/>
	<trip id="Truck2" type="Truck" depart="89" departLane="best" departSpeed="max" color="49,193,196" from="2_0" to="3_1"/>
	<trip id="Car16" type="Car" depart="92" departLane="best" departSpeed="max" color="50,16,62" from="3_0" to="1_1"/>
	<trip id="Van6" type="Truck" depart="97" departLane="best" departSpeed="max" color="212,0,50" from="1_0" to="3_1"/>
	<trip id="Car12" type="Car" depart="101" departLane="best" departSpeed="max" color="195,170,227" from="3_0" to="1_1"/>
	<trip id="Car30" type="Car" depart="108" departLane="best" departSpeed="max" color="36,192,163" from="1_0" to="3_1"/>
	<trip id="Van4" type="Truck" depart="123" departLane="best" departSpeed="max" color="187,155,246" from="1_0" to="3_1"/>
	<trip id="Car0" type="Car" depart="129" departLane="best" departSpeed="max" color="176,137,9" from="4_0" to="3_1"/>
	<trip id="Car24" type="Car" depart="132" departLane="best" departSpeed="max" color="23,213,71" from="1_0" to="4_1"/>
	<trip id="Truck8" type="Truck" depart="132" departLane="best" departSpeed="max" color="91,111,74" from="2_0" to="4_1"/>
	<trip id="Truck5" type="Truck" depart="134" departLane="best" departSpeed="max" color="57,73,18" from="1_0" to="3_1"/>
	<trip id="Van7" type="Truck" depart="134" departLane="best" departSpeed="max" color="129,42,243" from="1_0" to="2_1"/>
	<trip id="Car36" type="Car" depart="134" departLane="best" departSpeed="max" color="211,249,41" from="1_0" to="3_1"/>
	<trip id="Car21" type="Car" depart="135" departLane="best" departSpeed="max" color="96,126,230" from="2_0" to="1_1"/>
	<trip id="Truck0" type="Truck" depart="137" departLane="best" departSpeed="max" color="210,220,218" from="3_0" to="1_1"/>
	<trip id="Motorcycle3" type="Motorcycle" depart="139" departLane="best" departSpeed="max" color="1,10,102" from="2_0" to="3_1"/>
	<trip id="Motorcycle0" type="Motorcycle" depart="140" departLane="best" departSpeed="max" color="244,31,253" from="3_0" to="2_1"/>
	<trip id="Car25" type="Car" depart="140" departLane="best" departSpeed="max" color="23,189,192" from="1_0" to="4_1"/>
	<trip id="Car9" type="Car" depart="161" departLane="best" departSpeed="max" color="147,110,203" from="3_0" to="1_1"/>
	<trip id="Van0" type="Truck" depart="172" departLane="best" departSpeed="max" color="223,203,227" from="3_0" to="1_1"/>
	<trip id="Truck4" type="Truck" depart="172" departLane="best" departSpeed="max" color="209,30,160" from="1_0" to="3_1"/>
	<trip id="Motorcycle1" type="Motorcycle" depart="183" departLane="best" departSpeed="max" color="22,44,190" from="2_0" to="3_1"/>
	<trip id="Car13" type="Car" depart="184" departLane="best" departSpeed="max" color="145,235,195" from="3_0" to="1_1"/>
	<trip id="Motorcycle4" type="Motorcycle" depart="196" departLane="best" departSpeed="max" color="19,162,28" from="2_0" to="3_1"/>
	<trip id="Car29" type="Car" depart="197" departLane="best" departSpeed="max" color="239,143,42" from="1_0" to="3_1"/>
	<trip id="Car26" type="Car" depart="197" departLane="best" departSpeed="max" color="85,151,220" from="1_0" to="3_1"/>
	<trip id="Car10" type="Car" depart="202" departLane="best" departSpeed="max" color="144,155,143" from="3_0" to="1_1"/>
	<trip id="Car11" type="Car" depart="214" departLane="best" departSpeed="max" color="241,14,215" from="3_0" to="1_1"/>
	<trip id="Car39" type="Car" depart="271" departLane="best" departSpeed="max" color="208,227,42" from="1_0" to="3_1"/>
	<trip id="Car31" type="Car" depart="281" departLane="best" departSpeed="max" color="152,41,171" from="1_0" to="3_1"/>
	<trip id="Car41" type="Car" depart="281" departLane="best" departSpeed="max" color="6,6,215" from="1_0" to="2_1"/>
	<trip id="Truck9" type="Truck" depart="284" departLane="best" departSpeed="max" color="220,92,223" from="2_0" to="4_1"/>
	<trip id="Car14" type="Car" depart="284" departLane="best" departSpeed="max" color="91,98,26" from="3_0" to="1_1"/>
	<trip id="Van3" type="Truck" depart="284" departLane="best" departSpeed="max" color="180,111,192" from="2_0" to="1_1"/>
	<trip id="Car43" type="Car" depart="295" departLane="best" departSpeed="max" color="45,93,142" from="1_0" to="2_1"/>
	<trip id="Van8" type="Truck" depart="295" departLane="best" departSpeed="max" color="184,56,17" from="1_0" to="2_1"/>
	<trip id="Car48" type="Car" depart="310" departLane="best" departSpeed="max" color="159,111,247" from="3_0" to="2_1"/>
	<trip id="Car58" type="Car" depart="318" departLane="best" departSpeed="max" color="191,48,139" from="2_0" to="3_1"/>
	<trip id="Truck17" type="Truck" depart="318" departLane="best" departSpeed="max" color="193,112,253" from="2_0" to="1_1"/>
	<trip id="Truck12" type="Truck" depart="321" departLane="best" departSpeed="max" color="123,191,179" from="3_0" to="1_1"/>
	<trip id="Motorcycle7" type="Motorcycle" depart="336" departLane="best" departSpeed="max" color="220,152,121" from="3_0" to="2_1"/>
	<trip id="Truck15" type="Truck" depart="336" departLane="best" departSpeed="max" color="73,159,219" from="2_0" to="1_1"/>
	<trip id="Motorcycle6" type="Motorcycle" depart="348" departLane="best" departSpeed="max" color="237,22,25" from="3_0" to="2_1"/>
	<trip id="Truck16" type="Truck" depart="348" departLane="best" departSpeed="max" color="158,0,226" from="2_0" to="1_1"/>
	<trip id="Car49" type="Car" depart="353" departLane="best" departSpeed="max" color="216,190,240" from="3_0" to="2_1"/>
	<trip id="Car66" type="Car" depart="355" departLane="best" departSpeed="max" color="183,22,53" from="2_0" to="4_1"/>
	<trip id="Car55" type="Car" depart="355" departLane="best" departSpeed="max" color="36,29,184" from="3_0" to="1_1"/>
	<trip id="Car63" type="Car" depart="364" departLane="best" departSpeed="max" color="45,140,252" from="1_0" to="3_1"/>
	<trip id="Car65" type="Car" depart="364" departLane="best" departSpeed="max" color="245,65,119" from="1_0" to="3_1"/>
	<trip id="Van13" type="Truck" depart="373" departLane="best" departSpeed="max" color="10,243,181" from="1_0" to="3_1"/>
	<trip id="Car61" type="Car" depart="377" departLane="best" departSpeed="max" color="0,7,208" from="1_0" to="3_1"/>
	<trip id="Car59" type="Car" depart="377" departLane="best" departSpeed="max" color="29,131,174" from="1_0" to="3_1"/>
	<trip id="Car62" type="Car" depart="392" departLane="best" departSpeed="max" color="140,231,47" from="1_0" to="3_1"/>
	<trip id="Car64" type="Car" depart="408" departLane="best" departSpeed="max" color="169,199,250" from="1_0" to="3_1"/>
	<trip id="Car53" type="Car" depart="408" departLane="best" departSpeed="max" color="110,165,200" from="3_0" to="1_1"/>
	<trip id="Car52" type="Car" depart="412" departLane="best" departSpeed="max" color="178,211,0" from="3_0" to="3_1"/>
	<trip id="Van9" type="Truck" depart="413" departLane="best" departSpeed="max" color="179,216,136" from="3_0" to="2_1"/>
	<trip id="Motorcycle14" type="Motorcycle" depart="415" departLane="best" departSpeed="max" color="7,191,5" from="1_0" to="3_1"/>
	<trip id="Motorcycle11" type="Motorcycle" depart="417" departLane="best" departSpeed="max" color="155,61,56" from="2_0" to="1_1"/>
	<trip id="Van12" type="Truck" depart="428" departLane="best" departSpeed="max" color="31,161,18" from="1_0" to="3_1"/>
	<trip id="Motorcycle16" type="Motorcycle" depart="434" departLane="best" departSpeed="max" color="199,255,62" from="1_0" to="2_1"/>
	<trip id="Motorcycle13" type="Motorcycle" depart="458" departLane="best" departSpeed="max" color="127,247,238" from="1_0" to="3_1"/>
	<trip id="Truck14" type="Truck" depart="458" departLane="best" departSpeed="max" color="52,49,157" from="2_0" to="1_1"/>
	<trip id="Truck10" type="Truck" depart="472" departLane="best" departSpeed="max" color="219,159,33" from="3_0" to="1_1"/>
	<trip id="Van14" type="Truck" depart="494" departLane="best" departSpeed="max" color="9,171,201" from="1_0" to="3_1"/>
	<trip id="Car57" type="Car" depart="494" departLane="best" departSpeed="max" color="228,158,255" from="2_0" to="3_1"/>
	<trip id="Car51" type="Car" depart="494" departLane="best" departSpeed="max" color="247,86,75" from="4_0" to="2_1"/>
	<trip id="Car56" type="Car" depart="508" departLane="best" departSpeed="max" color="59,93,189" from="3_0" to="1_1"/>
	<trip id="Motorcycle12" type="Motorcycle" depart="516" departLane="best" departSpeed="max" color="96,188,33" from="1_0" to="3_1"/>
	<trip id="Motorcycle10" type="Motorcycle" depart="521" departLane="best" departSpeed="max" color="121,111,228" from="2_0" to="3_1"/>
	<trip id="Truck11" type="Truck" depart="528" departLane="best" departSpeed="max" color="161,93,249" from="3_0" to="1_1"/>
	<trip id="Car47" type="Car" depart="528" departLane="best" departSpeed="max" color="135,160,212" from="3_0" to="2_1"/>
	<trip id="Car46" type="Car" depart="558" departLane="best" departSpeed="max" color="191,145,39" from="3_0" to="2_1"/>
	<trip id="Truck13" type="Truck" depart="559" departLane="best" departSpeed="max" color="249,73,88" from="3_0" to="1_1"/>
	<trip id="Truck18" type="Truck" depart="562" departLane="best" departSpeed="max" color="96,93,184" from="1_0" to="2_1"/>
	<trip id="Car54" type="Car" depart="562" departLane="best" departSpeed="max" color="110,2,181" from="3_0" to="1_1"/>
	<trip id="Motorcycle15" type="Motorcycle" depart="562" departLane="best" departSpeed="max" color="1,60,179" from="1_0" to="2_1"/>
	<trip id="Van10" type="Truck" depart="562" departLane="best" departSpeed="max" color="2,126,72" from="2_0" to="2_1"/>
	<trip id="Car67" type="Car" depart="563" departLane="best" departSpeed="max" color="237,174,52" from="2_0" to="4_1"/>
	<trip id="Van11" type="Truck" depart="563" departLane="best" departSpeed="max" color="98,97,11" from="1_0" to="3_1"/>
	<trip id="Motorcycle8" type="Motorcycle" depart="569" departLane="best" departSpeed="max" color="138,132,73" from="3_0" to="2_1"/>
	<trip id="Motorcycle9" type="Motorcycle" depart="582" departLane="best" departSpeed="max" color="123,2,237" from="2_0" to="3_1"/>
	<trip id="Car60" type="Car" depart="584" departLane="best" departSpeed="max" color="150,22,197" from="1_0" to="3_1"/>
	<trip id="Car50" type="Car" depart="584" departLane="best" departSpeed="max" color="40,40,77" from="3_0" to="2_1"/>
	<trip id="Car45" type="Car" depart="597" departLane="best" departSpeed="max" color="50,65,77" from="3_0" to="2_1"/>
	<trip id="Truck21" type="Truck" depart="608" departLane="best" departSpeed="max" color="129,36,159" from="4_0" to="3_1"/>
	<trip id="Truck27" type="Truck" depart="609" departLane="best" departSpeed="max" color="173,231,148" from="1_0" to="2_1"/>
	<trip id="Van24" type="Truck" depart="618" departLane="best" departSpeed="max" color="175,170,243" from="2_0" to="4_1"/>
	<trip id="Car83" type="Car" depart="618" departLane="best" departSpeed="max" color="139,58,183" from="2_0" to="3_1"/>
	<trip id="Car76" type="Car" depart="636" departLane="best" departSpeed="max" color="177,229,204" from="3_0" to="1_1"/>
	<trip id="Car78" type="Car" depart="656" departLane="best" departSpeed="max" color="109,171,236" from="3_0" to="1_1"/>
	<trip id="Truck24" type="Truck" depart="656" departLane="best" departSpeed="max" color="198,196,216" from="3_0" to="1_1"/>
	<trip id="Car68" type="Car" depart="656" departLane="best" departSpeed="max" color="32,51,251" from="3_0" to="2_1"/>
	<trip id="Motorcycle17" type="Motorcycle" depart="656" departLane="best" departSpeed="max" color="39,72,213" from="3_0" to="1_1"/>
	<trip id="Car84" type="Car" depart="663" departLane="best" departSpeed="max" color="23,238,185" from="2_0" to="1_1"/>
	<trip id="Truck26" type="Truck" depart="663" departLane="best" departSpeed="max" color="116,29,230" from="1_0" to="3_1"/>
	<trip id="Motorcycle19" type="Motorcycle" depart="664" departLane="best" departSpeed="max" color="249,202,114" from="2_0" to="3_1"/>
	<trip id="Car80" type="Car" depart="664" departLane="best" departSpeed="max" color="119,151,239" from="3_0" to="1_1"/>
	<trip id="Car89" type="Car" depart="670" departLane="best" departSpeed="max" color="121,181,20" from="1_0" to="3_1"/>
	<trip id="Car91" type="Car" depart="678" departLane="best" departSpeed="max" color="202,106,74" from="1_0" to="2_1"/>
	<trip id="Car81" type="Car" depart="681" departLane="best" departSpeed="max" color="33,131,1" from="3_0" to="1_1"/>
	<trip id="Car82" type="Car" depart="686" departLane="best" departSpeed="max" color="207,161,146" from="2_0" to="3_1"/>
	<trip id="Van22" type="Truck" depart="705" departLane="best" departSpeed="max" color="78,45,66" from="2_0" to="4_1"/>
	<trip id="Car79" type="Car" depart="705" departLane="best" departSpeed="max" color="189,193,235" from="3_0" to="1_1"/>
	<trip id="Van20" type="Truck" depart="711" departLane="best" departSpeed="max" color="199,189,151" from="1_0" to="3_1"/>
	<trip id="Car88" type="Car" depart="711" departLane="best" departSpeed="max" color="111,168,100" from="1_0" to="3_1"/>
	<trip id="Car72" type="Car" depart="711" departLane="best" departSpeed="max" color="191,56,169" from="4_0" to="2_1"/>
	<trip id="Car92" type="Car" depart="711" departLane="best" departSpeed="max" color="11,122,225" from="1_0" to="2_1"/>
	<trip id="Van18" type="Truck" depart="733" departLane="best" departSpeed="max" color="7,26,146" from="1_0" to="3_1"/>
	<trip id="Truck20" type="Truck" depart="737" departLane="best" departSpeed="max" color="245,38,192" from="4_0" to="3_1"/>
	<trip id="Van23" type="Truck" depart="743" departLane="best" departSpeed="max" color="97,181,60" from="2_0" to="4_1"/>
	<trip id="Truck23" type="Truck" depart="743" departLane="best" departSpeed="max" color="237,111,143" from="3_0" to="1_1"/>
	<trip id="Motorcycle18" type="Motorcycle" depart="747" departLane="best" departSpeed="max" color="175,168,0" from="2_0" to="3_1"/>
	<trip id="Motorcycle20" type="Motorcycle" depart="747" departLane="best" departSpeed="max" color="140,48,126" from="1_0" to="2_1"/>
	<trip id="Car75" type="Car" depart="754" departLane="best" departSpeed="max" color="103,233,157" from="3_0" to="1_1"/>
	<trip id="Motorcycle21" type="Motorcycle" depart="764" departLane="best" departSpeed="max" color="86,73,180" from="2_0" to="4_1"/>
	<trip id="Car90" type="Car" depart="781" departLane="best" departSpeed="max" color="250,219,74" from="1_0" to="3_1"/>
	<trip id="Car93" type="Car" depart="783" departLane="best" departSpeed="max" color="250,1,69" from="2_0" to="4_1"/>
	<trip id="Car70" type="Car" depart="787" departLane="best" departSpeed="max" color="205,123,59" from="3_0" to="2_1"/>
	<trip id="Car74" type="Car" depart="797" departLane="best" departSpeed="max" color="104,65,14" from="3_0" to="1_1"/>
	<trip id="Truck19" type="Truck" depart="832" departLane="best" departSpeed="max" color="18,70,238" from="3_0" to="2_1"/>
	<trip id="Car94" type="Car" depart="852" departLane="best" departSpeed="max" color="67,118,119" from="2_0" to="4_1"/>
	<trip id="Van16" type="Truck" depart="854" departLane="best" departSpeed="max" color="254,84,186" from="3_0" to="4_1"/>
	<trip id="Car85" type="Car" depart="855" departLane="best" departSpeed="max" color="60,215,210" from="1_0" to="3_1"/>
	<trip id="Car69" type="Car" depart="862" departLane="best" departSpeed="max" color="166,126,144" from="3_0" to="2_1"/>
	<trip id="Car87" type="Car" depart="869" departLane="best" departSpeed="max" color="107,112,46" from="1_0" to="3_1"/>
	<trip id="Car71" type="Car" depart="879" departLane="best" departSpeed="max" color="190,112,194" from="3_0" to="2_1"/>
	<trip id="Truck25" type="Truck" depart="886" departLane="best" departSpeed="max" color="77,254,43" from="3_0" to="1_1"/>
	<trip id="Truck22" type="Truck" depart="886" departLane="best" departSpeed="max" color="209,232,202" from="4_0" to="1_1"/>
	<trip id="Truck28" type="Truck" depart="886" departLane="best" departSpeed="max" color="177,93,75" from="2_0" to="4_1"/>
	<trip id="Van15" type="Truck" depart="896" departLane="best" departSpeed="max" color="175,153,83" from="3_0" to="2_1"/>
	<trip id="Car86" type="Car" depart="896" departLane="best" departSpeed="max" color="86,95,205" from="1_0" to="3_1"/>
	<trip id="Car73" type="Car" depart="897" departLane="best" departSpeed="max" color="63,234,214" from="3_0" to="3_1"/>
	<trip id="Car77" type="Car" depart="897" departLane="best" departSpeed="max" color="102,51,7" from="3_0" to="1_1"/>
	<trip id="Van17" type="Truck" depart="897" departLane="best" departSpeed="max" color="42,200,44" from="3_0" to="1_1"/>
	<trip id="Van21" type="Truck" depart="898" departLane="best" departSpeed="max" color="239,54,195" from="1_0" to="3_1"/>
	<trip id="Van19" type="Truck" depart="898" departLane="best" departSpeed="max" color="14,234,175" from="1_0" to="3_1"/>
	<trip id="Motorcycle29" type="Motorcycle" depart="908" departLane="best" departSpeed="max" color="59,71,95" from="1_0" to="2_1"/>
	<trip id="Truck36" type="Truck" depart="908" departLane="best" departSpeed="max" color="11,73,149" from="3_0" to="1_1"/>
	<trip id="Truck46" type="Truck" depart="945" departLane="best" departSpeed="max" color="206,122,227" from="2_0" to="4_1"/>
	<trip id="Van28" type="Truck" depart="945" departLane="best" departSpeed="max" color="119,200,24" from="3_0" to="2_1"/>
	<trip id="Car108" type="Car" depart="952" departLane="best" departSpeed="max" color="15,117,30" from="1_0" to="3_1"/>
	<trip id="Car113" type="Car" depart="952" departLane="best" departSpeed="max" color="154,50,233" from="1_0" to="2_1"/>
	<trip id="Motorcycle26" type="Motorcycle" depart="954" departLane="best" departSpeed="max" color="55,95,176" from="2_0" to="2_1"/>
	<trip id="Car109" type="Car" depart="962" departLane="best" departSpeed="max" color="57,210,213" from="1_0" to="3_1"/>
	<trip id="Car104" type="Car" depart="967" departLane="best" departSpeed="max" color="17,155,68" from="1_0" to="4_1"/>
	<trip id="Motorcycle28" type="Motorcycle" depart="978" departLane="best" departSpeed="max" color="206,68,134" from="1_0" to="3_1"/>
	<trip id="Truck37" type="Truck" depart="978" departLane="best" departSpeed="max" color="221,245,187" from="3_0" to="1_1"/>
	<trip id="Truck44" type="Truck" depart="990" departLane="best" departSpeed="max" color="18,182,5" from="1_0" to="3_1"/>
	<trip id="Truck29" type="Truck" depart="990" departLane="best" departSpeed="max" color="83,59,180" from="4_0" to="2_1"/>
	<trip id="Car110" type="Car" depart="1002" departLane="best" departSpeed="max" color="236,115,98" from="1_0" to="3_1"/>
	<trip id="Car105" type="Car" depart="1006" departLane="best" departSpeed="max" color="162,76,182" from="1_0" to="3_1"/>
	<trip id="Motorcycle30" type="Motorcycle" depart="1008" departLane="best" departSpeed="max" color="88,186,147" from="1_0" to="2_1"/>
	<trip id="Car111" type="Car" depart="1010" departLane="best" departSpeed="max" color="246,232,172" from="1_0" to="3_1"/>
	<trip id="Truck40" type="Truck" depart="1020" departLane="best" departSpeed="max" color="213,51,192" from="3_0" to="1_1"/>
	<trip id="Car100" type="Car" depart="1036" departLane="best" departSpeed="max" color="116,101,132" from="3_0" to="1_1"/>
	<trip id="Truck32" type="Truck" depart="1049" departLane="best" departSpeed="max" color="82,104,58" from="3_0" to="2_1"/>
	<trip id="Car96" type="Car" depart="1053" departLane="best" departSpeed="max" color="187,174,215" from="3_0" to="2_1"/>
	<trip id="Car97" type="Car" depart="1056" departLane="best" departSpeed="max" color="207,36,169" from="3_0" to="1_1"/>
	<trip id="Car114" type="Car" depart="1059" departLane="best" departSpeed="max" color="78,139,18" from="1_0" to="2_1"/>
	<trip id="Car98" type="Car" depart="1059" departLane="best" departSpeed="max" color="81,131,179" from="3_0" to="1_1"/>
	<trip id="Car103" type="Car" depart="1061" departLane="best" departSpeed="max" color="40,234,150" from="2_0" to="3_1"/>
	<trip id="Truck45" type="Truck" depart="1070" departLane="best" departSpeed="max" color="235,99,201" from="1_0" to="2_1"/>
	<trip id="Car101" type="Car" depart="1074" departLane="best" departSpeed="max" color="23,38,222" from="3_0" to="1_1"/>
	<trip id="Van25" type="Truck" depart="1074" departLane="best" departSpeed="max" color="76,184,84" from="4_0" to="2_1"/>
	<trip id="Truck47" type="Truck" depart="1081" departLane="best" departSpeed="max" color="136,204,71" from="2_0" to="4_1"/>
	<trip id="Van32" type="Truck" depart="1082" departLane="best" departSpeed="max" color="22,34,90" from="1_0" to="3_1"/>
	<trip id="Truck41" type="Truck" depart="1082" departLane="best" departSpeed="max" color="57,10,21" from="3_0" to="1_1"/>
	<trip id="Van29" type="Truck" depart="1082" departLane="best" departSpeed="max" color="117,151,91" from="3_0" to="1_1"/>
	<trip id="Truck35" type="Truck" depart="1082" departLane="best" departSpeed="max" color="131,180,134" from="3_0" to="1_1"/>
	<trip id="Motorcycle23" type="Motorcycle" depart="1090" departLane="best" departSpeed="max" color="214,132,238" from="3_0" to="4_1"/>
	<trip id="Motorcycle27" type="Motorcycle" depart="1090" departLane="best" departSpeed="max" color="241,164,99" from="1_0" to="3_1"/>
	<trip id="Car102" type="Car" depart="1090" departLane="best" departSpeed="max" color="13,186,241" from="2_0" to="3_1"/>
	<trip id="Car99" type="Car" depart="1098" departLane="best" departSpeed="max" color="12,135,33" from="3_0" to="1_1"/>
	<trip id="Motorcycle25" type="Motorcycle" depart="1099" departLane="best" departSpeed="max" color="227,107,20" from="2_0" to="3_1"/>
	<trip id="Truck38" type="Truck" depart="1110" departLane="best" departSpeed="max" color="11,186,237" from="3_0" to="1_1"/>
	<trip id="Van31" type="Truck" depart="1111" departLane="best" departSpeed="max" color="5,85,229" from="1_0" to="3_1"/>
	<trip id="Car115" type="Car" depart="1111" departLane="best" departSpeed="max" color="226,131,86" from="2_0" to="4_1"/>
	<trip id="Truck39" type="Truck" depart="1111" departLane="best" departSpeed="max" color="163,23,29" from="3_0" to="1_1"/>
	<trip id="Truck43" type="Truck" depart="1128" departLane="best" departSpeed="max" color="50,228,38" from="1_0" to="3_1"/>
	<trip id="Truck30" type="Truck" depart="1128" departLane="best" departSpeed="max" color="198,139,202" from="3_0" to="2_1"/>
	<trip id="Car112" type="Car" depart="1140" departLane="best" departSpeed="max" color="163,203,56" from="1_0" to="3_1"/>
	<trip id="Motorcycle24" type="Motorcycle" depart="1142" departLane="best" departSpeed="max" color="39,214,164" from="2_0" to="3_1"/>
	<trip id="Motorcycle31" type="Motorcycle" depart="1142" departLane="best" departSpeed="max" color="237,44,151" from="1_0" to="2_1"/>
	<trip id="Truck42" type="Truck" depart="1145" departLane="best" departSpeed="max" color="69,106,0" from="3_0" to="1_1"/>
	<trip id="Truck48" type="Truck" depart="1145" departLane="best" departSpeed="max" color="97,153,16" from="2_0" to="4_1"/>
	<trip id="Car107" type="Car" depart="1153" departLane="best" departSpeed="max" color="3,126,68" from="1_0" to="3_1"/>
	<trip id="Van30" type="Truck" depart="1155" departLane="best" departSpeed="max" color="187,35,184" from="2_0" to="1_1"/>
	<trip id="Truck33" type="Truck" depart="1165" departLane="best" departSpeed="max" color="37,217,252" from="3_0" to="1_1"/>
	<trip id="Truck31" type="Truck" depart="1165" departLane="best" departSpeed="max" color="95,195,5" from="3_0" to="2_1"/>
	<trip id="Van33" type="Truck" depart="1165" departLane="best" departSpeed="max" color="222,88,96" from="1_0" to="3_1"/>
	<trip id="Car95" type="Car" depart="1165" departLane="best" departSpeed="max" color="242,130,183" from="3_0" to="2_1"/>
	<trip id="Motorcycle22" type="Motorcycle" depart="1165" departLane="best" departSpeed="max" color="188,234,209" from="4_0" to="3_1"/>
	<trip id="Van27" type="Truck" depart="1173" departLane="best" departSpeed="max" color="47,106,88" from="3_0" to="3_1"/>
	<trip id="Van26" type="Truck" depart="1185" departLane="best" departSpeed="max" color="146,142,68" from="4_0" to="2_1"/>
	<trip id="Truck34" type="Truck" depart="1185" departLane="best" departSpeed="max" color="69,137,82" from="3_0" to="1_1"/>
	<trip id="Car106" type="Car" depart="1187" departLane="best" departSpeed="max" color="88,126,102" from="1_0" to="3_1"/>
	<trip id="Motorcycle34" type="Motorcycle" depart="1215" departLane="best" departSpeed="max" color="212,132,136" from="1_0" to="3_1"/>
	<trip id="Car130" type="Car" depart="1215" departLane="best" departSpeed="max" color="155,253,177" from="1_0" to="3_1"/>
	<trip id="Van39" type="Truck" depart="1230" departLane="best" departSpeed="max" color="59,95,189" from="1_0" to="3_1"/>
	<trip id="Motorcycle35" type="Motorcycle" depart="1240" departLane="best" departSpeed="max" color="93,65,166" from="2_0" to="2_1"/>
	<trip id="Car117" type="Car" depart="1241" departLane="best" departSpeed="max" color="172,137,23" from="4_0" to="2_1"/>
	<trip id="Car119" type="Car" depart="1241" departLane="best" departSpeed="max" color="3,183,63" from="3_0" to="3_1"/>
	<trip id="Motorcycle32" type="Motorcycle" depart="1294" departLane="best" departSpeed="max" color="249,43,170" from="1_0" to="2_1"/>
	<trip id="Truck51" type="Truck" depart="1294" departLane="best" departSpeed="max" color="214,181,75" from="2_0" to="3_1"/>
	<trip id="Car116" type="Car" depart="1303" departLane="best" departSpeed="max" color="201,29,56" from="4_0" to="2_1"/>
	<trip id="Car138" type="Car" depart="1308" departLane="best" departSpeed="max" color="78,217,220" from="2_0" to="4_1"/>
	<trip id="Motorcycle33" type="Motorcycle" depart="1308" departLane="best" departSpeed="max" color="41,250,166" from="1_0" to="3_1"/>
	<trip id="Van37" type="Truck" depart="1308" departLane="best" departSpeed="max" color="75,39,61" from="3_0" to="1_1"/>